Circuit: * C:\Users\Admin PC\Desktop\BTL.asc

Direct Newton iteration for .op point succeeded. // Ket qua mo phong
Date: Sun Mar 19 02:43:11 2023
Total elapsed time: 0.136 seconds.

tnom = 27
temp = 27
method = trap
totiter = 14
traniter = 0
tranpoints = 0
accept = 0
rejected = 0
matrix size = 21
fillins = 0
solver = Normal
Matrix Compiler1:      82 opcodes
Matrix Compiler2: 1.78 KB object code size
